
  Mrv1719 05181907453D          

 29 31  0  0  0  0            999 V2000
    3.0406   -5.7326   -5.4783 C   0  0  0  0  0  0  0  0  0  0  0  0
    2.9837   -6.7343   -4.2929 C   0  0  1  0  0  0  0  0  0  0  0  0
    3.9530   -7.9330   -4.4721 C   0  0  0  0  0  0  0  0  0  0  0  0
    3.2184   -6.0436   -2.9990 C   0  0  0  0  0  0  0  0  0  0  0  0
    2.3131   -6.0882   -2.1319 O   0  0  0  0  0  0  0  0  0  0  0  0
    4.3810   -5.3620   -2.7849 N   0  0  0  0  0  0  0  0  0  0  0  0
    4.6692   -4.6045   -1.6986 C   0  0  0  0  0  0  0  0  0  0  0  0
    3.9451   -4.4490   -0.5669 N   0  0  0  0  0  0  0  0  0  0  0  0
    4.4058   -3.5408    0.3313 C   0  0  0  0  0  0  0  0  0  0  0  0
    5.5695   -2.8475   -0.0209 C   0  0  0  0  0  0  0  0  0  0  0  0
    6.0661   -3.5516   -1.5488 S   0  0  0  0  0  0  0  0  0  0  0  0
    6.1554   -1.7578    0.6547 C   0  0  0  0  0  0  0  0  0  0  0  0
    5.4254   -0.5661    0.9470 C   0  0  0  0  0  0  0  0  0  0  0  0
    6.1191    0.4839    1.5927 C   0  0  0  0  0  0  0  0  0  0  0  0
    7.4063    0.3248    1.9870 N   0  0  0  0  0  0  0  0  0  0  0  0
    8.1041   -0.8139    1.7615 C   0  0  0  0  0  0  0  0  0  0  0  0
    7.5027   -1.8734    1.0653 C   0  0  0  0  0  0  0  0  0  0  0  0
    4.0455   -0.3866    0.6104 C   0  0  0  0  0  0  0  0  0  0  0  0
    3.0083   -0.2255    1.5861 C   0  0  0  0  0  0  0  0  0  0  0  0
    1.6738   -0.0733    1.1252 C   0  0  0  0  0  0  0  0  0  0  0  0
    1.3452   -0.1538   -0.2389 C   0  0  0  0  0  0  0  0  0  0  0  0
    2.3712   -0.2983   -1.1853 C   0  0  0  0  0  0  0  0  0  0  0  0
    3.7063   -0.4009   -0.7660 C   0  0  0  0  0  0  0  0  0  0  0  0
    0.0385   -0.0722   -0.6411 O   0  0  0  0  0  0  0  0  0  0  0  0
   -0.6151   -1.3555   -0.6766 C   0  0  0  0  0  0  0  0  0  0  0  0
    3.2473   -0.2101    3.0673 C   0  0  2  0  0  0  0  0  0  0  0  0
    3.5381    1.0696    3.4729 F   0  0  0  0  0  0  0  0  0  0  0  0
    4.2569   -1.0506    3.4692 F   0  0  0  0  0  0  0  0  0  0  0  0
    2.1625   -0.6360    3.7999 F   0  0  0  0  0  0  0  0  0  0  0  0
  1  2  1  0  0  0  0
  2  3  1  0  0  0  0
  2  4  1  0  0  0  0
  4  5  2  0  0  0  0
  4  6  1  0  0  0  0
  6  7  1  0  0  0  0
  7  8  2  0  0  0  0
  8  9  1  0  0  0  0
  9 10  2  0  0  0  0
 10 11  1  0  0  0  0
  7 11  1  0  0  0  0
 10 12  1  0  0  0  0
 12 13  2  0  0  0  0
 13 14  1  0  0  0  0
 14 15  2  0  0  0  0
 15 16  1  0  0  0  0
 16 17  2  0  0  0  0
 12 17  1  0  0  0  0
 13 18  1  0  0  0  0
 18 19  2  0  0  0  0
 19 20  1  0  0  0  0
 20 21  2  0  0  0  0
 21 22  1  0  0  0  0
 22 23  2  0  0  0  0
 18 23  1  0  0  0  0
 21 24  1  0  0  0  0
 24 25  1  0  0  0  0
 19 26  1  0  0  0  0
 26 27  1  0  0  0  0
 26 28  1  0  0  0  0
 26 29  1  0  0  0  0
M  END
$$$$
