
  Mrv1719 05181907213D          

 22 24  0  0  0  0            999 V2000
   10.3709    8.1303   -3.1163 C   0  0  0  0  0  0  0  0  0  0  0  0
    9.7362    8.1217   -4.4544 C   0  0  0  0  0  0  0  0  0  0  0  0
    9.2603    6.9248   -5.0340 C   0  0  0  0  0  0  0  0  0  0  0  0
    8.6069    6.9256   -6.2859 C   0  0  0  0  0  0  0  0  0  0  0  0
    8.5192    8.1334   -7.0072 C   0  0  0  0  0  0  0  0  0  0  0  0
    9.0051    9.3302   -6.4540 C   0  0  0  0  0  0  0  0  0  0  0  0
    9.5922    9.3272   -5.1759 C   0  0  0  0  0  0  0  0  0  0  0  0
    8.0936    5.7966   -6.8462 N   0  0  0  0  0  0  0  0  0  0  0  0
    7.2835    4.8562   -6.2741 C   0  0  0  0  0  0  0  0  0  0  0  0
    7.0593    3.8515   -6.9873 O   0  0  0  0  0  0  0  0  0  0  0  0
    6.6441    4.9285   -4.9271 C   0  0  2  0  0  0  0  0  0  0  0  0
    7.3186    3.9339   -3.9334 C   0  0  0  0  0  0  0  0  0  0  0  0
    6.6504    4.0223   -2.5389 C   0  0  0  0  0  0  0  0  0  0  0  0
    5.2270    3.7625   -2.6638 N   0  0  0  0  0  0  0  0  0  0  0  0
    4.5030    4.6846   -3.5256 C   0  0  0  0  0  0  0  0  0  0  0  0
    5.1019    4.6794   -4.9602 C   0  0  0  0  0  0  0  0  0  0  0  0
    4.6178    2.6803   -2.0430 C   0  0  0  0  0  0  0  0  0  0  0  0
    5.3186    1.8411   -1.2258 N   0  0  0  0  0  0  0  0  0  0  0  0
    4.7717    0.7546   -0.6246 C   0  0  0  0  0  0  0  0  0  0  0  0
    3.4164    0.4595   -0.8370 C   0  0  0  0  0  0  0  0  0  0  0  0
    2.6836    1.3164   -1.6732 C   0  0  0  0  0  0  0  0  0  0  0  0
    3.2999    2.3851   -2.2405 N   0  0  0  0  0  0  0  0  0  0  0  0
  1  2  1  0  0  0  0
  2  3  2  0  0  0  0
  3  4  1  0  0  0  0
  4  5  2  0  0  0  0
  5  6  1  0  0  0  0
  6  7  2  0  0  0  0
  2  7  1  0  0  0  0
  4  8  1  0  0  0  0
  8  9  1  0  0  0  0
  9 10  2  0  0  0  0
  9 11  1  0  0  0  0
 11 12  1  0  0  0  0
 12 13  1  0  0  0  0
 13 14  1  0  0  0  0
 14 15  1  0  0  0  0
 15 16  1  0  0  0  0
 11 16  1  0  0  0  0
 14 17  1  0  0  0  0
 17 18  2  0  0  0  0
 18 19  1  0  0  0  0
 19 20  2  0  0  0  0
 20 21  1  0  0  0  0
 21 22  2  0  0  0  0
 17 22  1  0  0  0  0
M  END
$$$$
