
  Mrv1719 05181907223D          

 27 30  0  0  0  0            999 V2000
   -1.9929    4.8825    0.3439 C   0  0  0  0  0  0  0  0  0  0  0  0
   -0.5230    5.0395    0.4279 C   0  0  0  0  0  0  0  0  0  0  0  0
    0.2904    4.0379    1.0047 C   0  0  0  0  0  0  0  0  0  0  0  0
    1.6979    4.1804    1.0741 C   0  0  0  0  0  0  0  0  0  0  0  0
    2.2823    5.3719    0.6010 C   0  0  0  0  0  0  0  0  0  0  0  0
    1.4841    6.3815    0.0332 C   0  0  0  0  0  0  0  0  0  0  0  0
    0.0912    6.2131   -0.0630 C   0  0  0  0  0  0  0  0  0  0  0  0
    2.5102    3.2317    1.6301 N   0  0  0  0  0  0  0  0  0  0  0  0
    2.3288    1.8769    1.6300 C   0  0  0  0  0  0  0  0  0  0  0  0
    2.8776    1.2993    2.5963 O   0  0  0  0  0  0  0  0  0  0  0  0
    1.6288    1.1400    0.6884 N   0  0  0  0  0  0  0  0  0  0  0  0
    0.9956   -0.1291    1.0197 C   0  0  0  0  0  0  0  0  0  0  0  0
    1.2692   -1.2475   -0.0261 C   0  0  0  0  0  0  0  0  0  0  0  0
    1.0977   -0.7005   -1.3525 N   0  0  0  0  0  0  0  0  0  0  0  0
    1.9205    0.4439   -1.6630 C   0  0  0  0  0  0  0  0  0  0  0  0
    1.5355    1.5838   -0.6903 C   0  0  0  0  0  0  0  0  0  0  0  0
    0.1421   -1.1379   -2.2363 C   0  0  0  0  0  0  0  0  0  0  0  0
   -0.3309   -0.4390   -3.2941 N   0  0  0  0  0  0  0  0  0  0  0  0
   -1.3190   -0.9415   -3.9894 N   0  0  0  0  0  0  0  0  0  0  0  0
   -1.8066   -2.1433   -3.6104 C   0  0  0  0  0  0  0  0  0  0  0  0
   -0.7990   -2.6198   -2.2518 S   0  0  0  0  0  0  0  0  0  0  0  0
   -2.9146   -2.8088   -4.1843 C   0  0  0  0  0  0  0  0  0  0  0  0
   -3.7459   -2.1306   -5.1100 C   0  0  0  0  0  0  0  0  0  0  0  0
   -4.8681   -2.7644   -5.6714 C   0  0  0  0  0  0  0  0  0  0  0  0
   -5.1755   -4.0890   -5.3180 C   0  0  0  0  0  0  0  0  0  0  0  0
   -4.3591   -4.7786   -4.4042 C   0  0  0  0  0  0  0  0  0  0  0  0
   -3.2371   -4.1431   -3.8394 C   0  0  0  0  0  0  0  0  0  0  0  0
  1  2  1  0  0  0  0
  2  3  2  0  0  0  0
  3  4  1  0  0  0  0
  4  5  2  0  0  0  0
  5  6  1  0  0  0  0
  6  7  2  0  0  0  0
  2  7  1  0  0  0  0
  4  8  1  0  0  0  0
  8  9  1  0  0  0  0
  9 10  2  0  0  0  0
  9 11  1  0  0  0  0
 11 12  1  0  0  0  0
 12 13  1  0  0  0  0
 13 14  1  0  0  0  0
 14 15  1  0  0  0  0
 15 16  1  0  0  0  0
 11 16  1  0  0  0  0
 14 17  1  0  0  0  0
 17 18  2  0  0  0  0
 18 19  1  0  0  0  0
 19 20  2  0  0  0  0
 20 21  1  0  0  0  0
 17 21  1  0  0  0  0
 20 22  1  0  0  0  0
 22 23  2  0  0  0  0
 23 24  1  0  0  0  0
 24 25  2  0  0  0  0
 25 26  1  0  0  0  0
 26 27  2  0  0  0  0
 22 27  1  0  0  0  0
M  END
$$$$
