
  Mrv1719 05181907203D          

 23 25  0  0  0  0            999 V2000
   10.4397   10.5484   -4.6787 C   0  0  0  0  0  0  0  0  0  0  0  0
    9.8333    9.3039   -5.2187 C   0  0  0  0  0  0  0  0  0  0  0  0
    9.9074    8.0771   -4.5166 C   0  0  0  0  0  0  0  0  0  0  0  0
    9.3087    6.9183   -5.0449 C   0  0  0  0  0  0  0  0  0  0  0  0
    8.6080    6.9472   -6.2705 C   0  0  0  0  0  0  0  0  0  0  0  0
    8.5511    8.1641   -6.9799 C   0  0  0  0  0  0  0  0  0  0  0  0
    9.1448    9.3296   -6.4553 C   0  0  0  0  0  0  0  0  0  0  0  0
    8.0452    5.8354   -6.8293 N   0  0  0  0  0  0  0  0  0  0  0  0
    7.2835    4.8680   -6.2366 C   0  0  0  0  0  0  0  0  0  0  0  0
    7.0807    3.8525   -6.9418 O   0  0  0  0  0  0  0  0  0  0  0  0
    6.6566    4.9357   -4.8835 C   0  0  2  0  0  0  0  0  0  0  0  0
    7.3267    3.9565   -3.8731 C   0  0  0  0  0  0  0  0  0  0  0  0
    6.6447    4.0487   -2.4836 C   0  0  0  0  0  0  0  0  0  0  0  0
    5.2245    3.7760   -2.6285 N   0  0  0  0  0  0  0  0  0  0  0  0
    4.4994    4.6804   -3.5098 C   0  0  0  0  0  0  0  0  0  0  0  0
    5.1208    4.6581   -4.9331 C   0  0  0  0  0  0  0  0  0  0  0  0
    4.6226    2.6883   -2.0180 C   0  0  0  0  0  0  0  0  0  0  0  0
    5.3224    1.8441   -1.2048 N   0  0  0  0  0  0  0  0  0  0  0  0
    4.7735    0.7493   -0.6214 C   0  0  0  0  0  0  0  0  0  0  0  0
    3.4209    0.4492   -0.8477 C   0  0  0  0  0  0  0  0  0  0  0  0
    2.6920    1.3194   -1.6741 C   0  0  0  0  0  0  0  0  0  0  0  0
    3.3068    2.3957   -2.2237 N   0  0  0  0  0  0  0  0  0  0  0  0
   10.5313    7.9775   -3.3722 F   0  0  0  0  0  0  0  0  0  0  0  0
  1  2  1  0  0  0  0
  2  3  2  0  0  0  0
  3  4  1  0  0  0  0
  4  5  2  0  0  0  0
  5  6  1  0  0  0  0
  6  7  2  0  0  0  0
  2  7  1  0  0  0  0
  5  8  1  0  0  0  0
  8  9  1  0  0  0  0
  9 10  2  0  0  0  0
  9 11  1  0  0  0  0
 11 12  1  0  0  0  0
 12 13  1  0  0  0  0
 13 14  1  0  0  0  0
 14 15  1  0  0  0  0
 15 16  1  0  0  0  0
 11 16  1  0  0  0  0
 14 17  1  0  0  0  0
 17 18  2  0  0  0  0
 18 19  1  0  0  0  0
 19 20  2  0  0  0  0
 20 21  1  0  0  0  0
 21 22  2  0  0  0  0
 17 22  1  0  0  0  0
  3 23  1  0  0  0  0
M  END
$$$$
